Version 4.1
SHEET 1 880 1328
WIRE -96 464 -144 464
WIRE 16 464 -16 464
WIRE 256 464 80 464
WIRE 416 464 368 464
WIRE 592 464 480 464
WIRE 704 464 592 464
WIRE 256 496 256 464
WIRE 368 496 368 464
WIRE -144 528 -144 464
WIRE 704 528 704 464
WIRE 256 656 256 576
WIRE 368 656 368 576
WIRE 368 656 256 656
WIRE 704 656 704 608
WIRE 704 656 368 656
WIRE -144 672 -144 608
FLAG -144 672 0
FLAG -144 464 vi
IOPIN -144 464 In
FLAG 592 464 vo
IOPIN 592 464 Out
FLAG 256 656 0
SYMBOL voltage -144 512 R0
WINDOW 3 24 96 Invisible 2
SYMATTR Value 0
SYMATTR InstName V1
SYMATTR Value2 AC 1 0
SYMATTR SpiceLine Rser=0
SYMBOL res 0 448 R90
WINDOW 0 0 56 VBottom 2
WINDOW 3 32 56 VTop 2
SYMATTR InstName R1
SYMATTR Value {R}
SYMBOL res 720 624 R180
WINDOW 0 36 76 Left 2
WINDOW 3 36 40 Left 2
SYMATTR InstName R2
SYMATTR Value {R}
SYMBOL ind2 272 592 R180
WINDOW 0 36 80 Left 2
WINDOW 3 36 40 Left 2
SYMATTR InstName L1
SYMATTR Value {L1}
SYMATTR Type ind
SYMATTR SpiceLine Rser=0
SYMBOL ind2 384 592 R180
WINDOW 0 36 80 Left 2
WINDOW 3 36 40 Left 2
SYMATTR InstName L2
SYMATTR Value {L2}
SYMATTR Type ind
SYMATTR SpiceLine Rser=0
SYMBOL cap 80 448 R90
WINDOW 0 0 32 VBottom 2
WINDOW 3 32 32 VTop 2
SYMATTR InstName C1
SYMATTR Value {C1}
SYMBOL cap 480 448 R90
WINDOW 0 0 32 VBottom 2
WINDOW 3 32 32 VTop 2
SYMATTR InstName C2
SYMATTR Value {C2}
TEXT 8 760 Left 2 !.ac dec 1000 .001 100
TEXT 248 424 Left 2 !k L1 L2 {k}
TEXT 304 760 Left 2 !.param L2=1/8 C2=2
TEXT 304 816 Left 2 !.param R=1 k = .09
TEXT 304 720 Left 2 !.param L1=2 C1=1/2
